management.sch: written by SWAT+ editor on 2020-09-30 12:55
name                       numb_ops  numb_auto            op_typ       mon       day        hu_sch          op_data1          op_data2      op_data3  
agrc_rot                         14          0  
                                                            hvkl         4        21       0.00000              soyb             grain       0.00000  
                                                            plnt         6        14       0.00000              wwht              null       0.00000  
                                                            fert         6        14       0.00000          18_46_00      aerial_solid     100.00000  
                                                            fert         7        24       0.00000              urea      aerial_solid      80.00000  
                                                            fert         8        24       0.00000              urea      aerial_solid      80.00000  
                                                            hvkl        11        25       0.00000              wwht             grain       0.00000  
                                                            plnt        12        10       0.00000              soy2              null       0.00000  
                                                            fert        12        10       0.00000          46_00_00      aerial_solid      44.00000  
                                                            hvkl         5         1       0.00000              soy2             grain       0.00000  
                                                            plnt         5         2       0.00000              oats              null       0.00000  
                                                            prtp        11        10       0.00000              null              null       0.00000  
                                                            kill        11        11       0.00000              oats              null       0.00000  
                                                            plnt        11        12       0.00000              soyb              null       0.00000  
                                                            fert        11        12       0.00000          46_00_00      aerial_solid      44.00000  
agrc2_rot                        15          0
                                                            hvkl         5         1       0.00000              soy2             grain       0.00000  
                                                            plnt         6        14       0.00000              barl              null       0.00000  
                                                            fert         6        14       0.00000          18_46_00      aerial_solid     100.00000  
                                                            fert         7        24       0.00000              urea      aerial_solid      80.00000  
                                                            fert         8        24       0.00000              urea      aerial_solid      80.00000  
                                                            hvkl        11        25       0.00000              barl             grain       0.00000  
                                                            plnt        12        10       0.00000              soy2              null       0.00000  
                                                            fert        12        10       0.00000          46_00_00      aerial_solid      44.00000  
                                                            hvkl         5         1       0.00000              soy2             grain       0.00000  
                                                            plnt         6        14       0.00000              wwht              null       0.00000  
                                                            fert         6        14       0.00000          18_46_00      aerial_solid     100.00000  
                                                            fert         7        24       0.00000              urea      aerial_solid      80.00000  
                                                            fert         8        24       0.00000              urea      aerial_solid      80.00000  
                                                            hvkl        11        25       0.00000              wwht             grain       0.00000  
                                                            plnt        12        10       0.00000              soy2              null       0.00000  
agrc3_rot                        13          0                                                   
                                                            hvkl         4        21       0.00000              soyb             grain       0.00000  
                                                            plnt         4        22       0.00000              oats              null       0.00000  
                                                            prtp         9        21       0.00000              null              null       0.00000  
                                                            kill         9        22       0.00000              oats              null       0.00000  
                                                            plnt         9        23       0.00000              corn              null       0.00000  
                                                            fert         9        23       0.00000          18_46_00      aerial_solid     150.00000  
                                                            fert        11         2       0.00000              urea      aerial_solid     200.00000  
                                                            hvkl         2        20       0.00000              corn             grain       0.00000  
                                                            plnt         2        21       0.00000              oats              null       0.00000  
                                                            prtp        11        10       0.00000              null              null       0.00000  
                                                            kill        11        11       0.00000              oats              null       0.00000  
                                                            plnt        11        12       0.00000              soyb              null       0.00000  
                                                            fert        11        12       0.00000          46_00_00      aerial_solid      44.00000  
agrc4_rot                        21          0                                                                                                  
                                                            hvkl         4        21       0.00000              soyb             grain       0.00000  
                                                            plnt         6        14       0.00000              wwht              null       0.00000  
                                                            fert         6        14       0.00000          18_46_00      aerial_solid     100.00000  
                                                            fert         7        24       0.00000              urea      aerial_solid      80.00000  
                                                            fert         8        24       0.00000              urea      aerial_solid      80.00000  
                                                            hvkl        11        25       0.00000              wwht             grain       0.00000  
                                                            plnt        12        10       0.00000              soy2              null       0.00000  
                                                            fert        12        10       0.00000          46_00_00      aerial_solid      44.00000  
                                                            hvkl         5         1       0.00000              soy2             grain       0.00000  
                                                            plnt         5         2       0.00000              oats              null       0.00000  
                                                            prtp         9        21       0.00000              null              null       0.00000  
                                                            kill         9        22       0.00000              oats              null       0.00000  
                                                            plnt         9        23       0.00000              corn              null       0.00000  
                                                            fert         9        23       0.00000          18_46_00      aerial_solid     150.00000  
                                                            fert        11         2       0.00000              urea      aerial_solid     200.00000  
                                                            hvkl         2        20       0.00000              corn             grain       0.00000  
                                                            plnt         2        21       0.00000              oats              null       0.00000  
                                                            prtp        11        10       0.00000              null              null       0.00000  
                                                            kill        11        11       0.00000              oats              null       0.00000  
                                                            plnt        11        12       0.00000              soyb              null       0.00000  
                                                            fert        11        12       0.00000          46_00_00      aerial_solid      44.00000  
agri_rot                         19          0  
                                                            hvkl         2        20       0.00000              corn             grain       0.00000  
                                                            plnt         4        23       0.00000              oats              null       0.00000  
                                                            prtp        11        10       0.00000              null              null       0.00000  
                                                            kill        11        11       0.00000              oats              null       0.00000  
                                                            plnt        11        12       0.00000              soyb              null       0.00000  
                                                            fert        11        12       0.00000          46_00_00      aerial_solid       0.00000  
                                                            plnt         2        21       0.00000              oats              null       0.00000  
                                                            hvkl         4        21       0.00000              soyb             grain       0.00000  
                                                            prtp        11        10       0.00000              null              null       0.00000  
                                                            kill        11        11       0.00000              oats              null       0.00000  
                                                            plnt        11        12       0.00000              soyb              null       0.00000  
                                                            fert        11        12       0.00000          46_00_00      aerial_solid       0.00000  
                                                            hvkl         4        21       0.00000              soyb             grain       0.00000  
                                                            plnt         4        22       0.00000              oats              null       0.00000  
                                                            prtp         9        21       0.00000              null              null       0.00000  
                                                            kill         9        22       0.00000              oats              null       0.00000  
                                                            plnt         9        23       0.00000              corn              null       0.00000  
                                                            fert         9        23       0.00000          18_46_00      aerial_solid       0.00000  
                                                            fert        11         2       0.00000              urea      aerial_solid       0.00000  
agrp_rot                         18          0  
                                                            graz         1         1       0.00000         beef_high              null     314.00000  
                                                            kill        11        11       0.00000              past              null       0.00000  
                                                            plnt        11        12       0.00000              soyb              null       0.00000  
                                                            fert        11        12       0.00000          46_00_00      aerial_solid      44.00000  
                                                            hvkl         4        21       0.00000              soyb             grain       0.00000  
                                                            plnt         4        22       0.00000              oats              null       0.00000  
                                                            prtp        11        10       0.00000              null              null       0.00000  
                                                            kill        11        11       0.00000              oats              null       0.00000  
                                                            plnt        11        12       0.00000              soyb              null       0.00000  
                                                            fert        11        12       0.00000          46_00_00      aerial_solid      44.00000  
                                                            hvkl         4        21       0.00000              soyb             grain       0.00000  
                                                            fert         4        21       0.00000          18_46_00      aerial_solid     150.00000  
                                                            plnt         4        22       0.00000              past              null       0.00000  
                                                            graz        10        30       0.00000         beef_high              null     253.00000  
                                                            graz         1         1       0.00000         beef_high              null     365.00000  
                                                            fert         4        16       0.00000          18_46_00      aerial_solid      80.00000  
                                                            graz         1         1       0.00000         beef_high              null     365.00000  
                                                            fert         4        16       0.00000          18_46_00      aerial_solid      80.00000  
gras_rot                          1          0  
                                                            graz         1         1       0.00000         beef_high              null     365.00000  
